148
Properties=species:S:1:pos:R:3 pbc="F F F"
C        0.00000000       0.00000000       0.00000000
C        4.26513154       4.91633363       0.00000000
C        6.39653185       3.68333946       0.00000000
C        2.13579277       6.14871196       0.00000000
C        0.00544640       7.38387025       0.00000000
C        4.97455231       3.68807673       0.00000000
C        2.84653698       4.92079107       0.00000000
C        7.10422336       2.45628449       0.00000000
C       -1.41024178       7.38586149       0.00000000
C        0.71800964       6.15293009       0.00000000
C        4.26314705       2.45446438       0.00000000
C        2.13363438       3.68673037       0.00000000
C        6.39498765       1.22396775       0.00000000
C       -2.12468059       6.15708039       0.00000000
C        0.00434208       4.92064252       0.00000000
C        2.84239353       2.45661674       0.00000000
C        4.97114972       1.22587233       0.00000000
C        0.71435742       3.68922765       0.00000000
C       -3.54399175       6.15799415       0.00000000
C       -1.41311808       4.92328612       0.00000000
C        7.10200109      -0.00738656       0.00000000
C        2.13114279       1.22657815       0.00000000
C        4.25968440      -0.00531266       0.00000000
C        0.00355049       2.45956499       0.00000000
C       -4.25621555       4.93128337       0.00000000
C       -2.12494599       3.69372205       0.00000000
C        6.39196963      -1.23763501       0.00000000
C        2.83929053      -0.00428610       0.00000000
C        0.71172380       1.22898725       0.00000000
C        4.96813678      -1.23765422       0.00000000
C       -3.54610498       3.69649367       0.00000000
C       -5.67801285       4.93156183       0.00000000
C       -1.41627358       2.46224834       0.00000000
C        7.09841558      -2.47153995       0.00000000
C        2.12749471      -1.23343050       0.00000000
C        4.25717108      -2.46514005       0.00000000
C       -4.25592794       2.47023404       0.00000000
C       -6.38674752       3.70667936       0.00000000
C       -2.12769563       1.23405543       0.00000000
C        6.38840354      -3.69733353       0.00000000
C        0.70766374      -1.23146049       0.00000000
C        2.83572950      -2.46471180       0.00000000
C       -1.42055686       0.00318433       0.00000000
C       -5.67993044       2.47241699       0.00000000
C       -3.54806579       1.23776580       0.00000000
C        4.96557396      -3.70015401       0.00000000
C       -0.00493201      -2.45905090       0.00000000
C        2.12261263      -3.69283151       0.00000000
C       -2.13246299      -1.22453094       0.00000000
C       -6.38876292       1.24519079       0.00000000
C       -4.25938529       0.00999483       0.00000000
C        4.25188760      -4.92672840       0.00000000
C        0.70280197      -3.69083486       0.00000000
C       -1.42510574      -2.45559405       0.00000000
C        2.83246216      -4.92855218       0.00000000
C       -5.68450300       0.01414674       0.00000000
C       -3.55320705      -1.22120699       0.00000000
C       -0.01186264      -4.91933825       0.00000000
C       -2.13880029      -3.68346578       0.00000000
C        2.11726353      -6.15499918       0.00000000
C       -6.39383582      -1.21385947       0.00000000
C       -4.26632652      -2.45002505       0.00000000
C       -1.43048273      -4.91556340       0.00000000
C        0.69823198      -6.15392938       0.00000000
C       -3.56082031      -3.67929851       0.00000000
C       -5.69042718      -2.44455933       0.00000000
C       -2.14791578      -6.14544708       0.00000000
C       -0.02082298      -7.38142876       0.00000000
C       -4.27637812      -4.90991671       0.00000000
C       -6.40282100      -3.67488000       0.00000000
C       -1.43790999      -7.37689841       0.00000000
C       -3.56828139      -6.13979028       0.00000000
C       -5.69870058      -4.90306809       0.00000000
C        4.98310245       6.16003437       0.00000000
C        7.11118225       4.93250738       0.00000000
C        2.85460807       7.39198521       0.00000000
C        0.73079559       8.62677448       0.00000000
C        8.54180346       2.44834694       0.00000000
C       -2.13431731       8.62755779       0.00000000
C       -4.25983936       7.40092249       0.00000000
C        8.53594142      -0.00806388       0.00000000
C       -6.38918505       6.18085962       0.00000000
C        8.53592617      -2.46469103       0.00000000
C       -7.82560086       3.70368836       0.00000000
C        7.10098712      -4.94739964       0.00000000
C       -7.82509354       1.24810845       0.00000000
C        4.96724274      -6.17179586       0.00000000
C        2.83253354      -7.40040864       0.00000000
C       -7.82948432      -1.20882463       0.00000000
C        0.69965626      -8.62723081       0.00000000
C       -7.84194236      -3.66409914       0.00000000
C       -2.16859303      -8.61509242       0.00000000
C       -4.29000825      -7.37904648       0.00000000
C       -6.41538891      -6.14864691       0.00000000
C        9.22893362       3.71272338       0.00000000
C        9.22061215       1.23097489       0.00000000
C        9.21681123      -1.24928281       0.00000000
C        8.54842438       4.89358006       0.00000000
C        6.40121304       6.12819737       0.00000000
C        4.26039307       7.36622500       0.00000000
C        2.12144133       8.60613132       0.00000000
C       -0.01995614       9.85297003       0.00000000
C       -1.38262998       9.85284170       0.00000000
C       -3.52754908       8.61028958       0.00000000
C       -5.67400642       7.37619523       0.00000000
C       -7.82690337       6.14636081       0.00000000
C       -8.51089595       4.96792609       0.00000000
C       -8.50588974       2.49158041       0.00000000
C       -8.50891456       0.02103682       0.00000000
C       -8.51735245      -2.44838629       0.00000000
C       -8.53195079      -4.92523866       0.00000000
C       -7.85345729      -6.10769784       0.00000000
C       -5.70510426      -7.34660386       0.00000000
C       -3.56160241      -8.59150836       0.00000000
C       -1.42199391      -9.84361412       0.00000000
C       -0.05862340      -9.85054976       0.00000000
C        2.09146496      -8.61172105       0.00000000
C        4.23989056      -7.37675306       0.00000000
C        6.38672112      -6.14176048       0.00000000
C        8.53933563      -4.90967711       0.00000000
C        9.22146858      -3.72861461       0.00000000
H       10.32090151       3.70812413       0.00000000
H       10.31369211       1.22902807       0.00000000
H       10.30980979      -1.24975210       0.00000000
H        9.08821147       5.84263623       0.00000000
H        6.94624957       7.07555491       0.00000000
H        4.80689570       8.31298811       0.00000000
H        2.67194685       9.55047999       0.00000000
H        0.53019542      10.79577416       0.00000000
H       -1.93380972      10.79539146       0.00000000
H       -4.07469679       9.55652580       0.00000000
H       -6.21674346       8.32512405       0.00000000
H       -8.36635727       7.09545736       0.00000000
H       -9.60267827       4.96399357       0.00000000
H       -9.59887538       2.49192362       0.00000000
H       -9.60183733       0.02316517       0.00000000
H       -9.61024956      -2.43723871       0.00000000
H       -9.62362440      -4.91274117       0.00000000
H       -8.39812176      -7.05403917       0.00000000
H       -6.25527389      -8.29107805       0.00000000
H       -4.11378008      -9.53492847       0.00000000
H       -1.97925531     -10.78275994       0.00000000
H        0.48491426     -10.79763362       0.00000000
H        2.63379512      -9.56060604       0.00000000
H        4.78676127      -8.32327999       0.00000000
H        6.93105397      -7.08967023       0.00000000
H        9.08064557      -5.85783309       0.00000000
H       10.31339709      -3.72180833       0.00000000
