26
Properties=species:S:1:pos:R:3 C13NH12=T pbc="F F F"
N        0.01688877      -0.00000000       0.50269495
C        0.71001036       1.23011843      -0.02406860
C        2.09469781       1.18088305      -0.20181106
C       -0.03211702       2.40772680      -0.15009077
C        2.83398444      -0.00000000      -0.18551628
C        0.71001036      -1.23011843      -0.02406860
C       -1.42002073       0.00000000       0.04813719
C       -1.42211007       2.45787360      -0.07036802
C        2.09469781      -1.18088305      -0.20181106
C       -2.07512085       1.22778205      -0.07593941
C       -0.03211702      -2.40772680      -0.15009077
C       -2.07512085      -1.22778205      -0.07593941
C       -1.42211007      -2.45787360      -0.07036802
H        2.58306743       2.13262111      -0.42037468
H        0.53983884       3.31069902      -0.37498675
H        3.91276567      -0.00000000      -0.31685991
H       -1.96760694       3.39395503      -0.16045296
H        2.58306743      -2.13262111      -0.42037468
H       -3.15460968       1.17730345      -0.23789748
H        0.53983884      -3.31069902      -0.37498675
H       -3.15460968      -1.17730345      -0.23789748
H       -1.96760694      -3.39395503      -0.16045296
C        0.07031334      -0.00000000       2.05343623
H       -0.95677510       0.00000000       2.43094148
H        0.60096872       0.90062286       2.37815090
H        0.60096872      -0.90062286       2.37815090
