34
C19N3H12
C        0.000000000      0.000000000      0.000000000
N        1.384653635     -2.398290447      0.000000000
C        2.122218461     -1.232719739      0.000000000
C        1.412123471     -0.000017499      0.000000000
C       -0.706046581     -1.222943549      0.000000000
C        0.006457379     -2.454254969      0.000000000
C       -0.698873860     -3.660183646      0.000000000
H       -0.171923655     -4.614296255      0.000000000
H        1.893231425     -3.279173019      0.000000000
H        4.082059605     -2.158257875      0.000000000
C        3.519248950     -1.224849306      0.000000000
C        4.188924116      0.000329642      0.000000000
C        3.518860116      1.225398035      0.000000000
C        2.121636227      1.233325499      0.000000000
N        1.383829989      2.399256310      0.000000000
C        0.005717955      2.454149472      0.000000000
C       -0.706178925      1.223137777      0.000000000
C       -2.128214765      1.222122842      0.000000000
N       -2.769731909      0.001196230      0.000000000
C       -2.128909327     -1.220728121      0.000000000
C       -2.820655886     -2.434723235      0.000000000
C       -2.094747536     -3.627549878      0.000000000
H        4.081381276      2.160004106      0.000000000
H        1.892868137      3.280484875      0.000000000
H       -0.170430856      4.614003463      0.000000000
C       -0.699373794      3.660526884      0.000000000
C       -2.094582260      3.627922895      0.000000000
C       -2.820422376      2.435938914      0.000000000
H       -3.910628784      2.454599183      0.000000000
H       -3.787417307      0.000970545      0.000000000
H       -3.911309066     -2.454577814      0.000000000
H        5.279865921      0.000840588      0.000000000
H       -2.640660931     -4.572077722      0.000000000
H       -2.639909885      4.572458048      0.000000000
