31

C        0.000000000      0.000000000      0.000000000
O       -2.789933090      0.000000000      0.000000000
C       -2.111688390      1.194436910      0.000000000
C       -0.698595600      1.210462400      0.000000000
C       -0.698595600     -1.210462400      0.000000000
C       -2.111688390     -1.194436910      0.000000000
C       -2.809962060     -2.393309320      0.000000000
H       -3.899145760     -2.405362560      0.000000000
H       -3.899145760      2.405362560      0.000000000
C       -2.809962060      2.393309320      0.000000000
C       -2.069564440      3.584180160      0.000000000
C       -0.667988130      3.629859400      0.000000000
C        0.021837230      2.425984130      0.000000000
O        1.394510010      2.415584400      0.000000000
C        2.089036990      1.231511840      0.000000000
C        1.396511690      0.000000000      0.000000000
C        2.089036990     -1.231511840      0.000000000
O        1.394510010     -2.415584400      0.000000000
C        0.021837230     -2.425984130      0.000000000
C       -0.667988130     -3.629859400      0.000000000
C       -2.069564440     -3.584180160      0.000000000
H       -0.132946940      4.578755120      0.000000000
H        4.031103340      2.174404590      0.000000000
C        3.476778160      1.236954280      0.000000000
C        4.137996020      0.000000000      0.000000000
C        3.476778160     -1.236954280      0.000000000
H        4.031103340     -2.174404590      0.000000000
H       -0.132946940     -4.578755120      0.000000000
H       -2.614627320      4.529028960      0.000000000
H       -2.614627320     -4.529028960      0.000000000
H        5.229351640      0.000000000      0.000000000
