36
Properties=species:S:1:pos:R:3 pbc="F F F"
B        1.45432429       0.00000000       0.00000000
C        0.69239390      -1.29132292       0.00000000
C       -0.72716215      -1.26000289       0.00000000
C        1.41848792      -2.51307179       0.00000000
C       -1.43045148      -0.00000000       0.00000000
C        0.69239390       1.29132292       0.00000000
C       -1.45408220      -2.48860536       0.00000000
C        2.96120631       0.00000000       0.00000000
C        0.67030469      -3.72673621       0.00000000
C        2.85391769      -2.46302965       0.00000000
C       -0.71216406      -3.70832676       0.00000000
C       -0.72716215       1.26000289       0.00000000
C        3.58923274      -1.27847884       0.00000000
C       -2.85408927      -0.00000000       0.00000000
C        1.41848792       2.51307179       0.00000000
C       -2.87641445      -2.44666983       0.00000000
C        3.58923274       1.27847884       0.00000000
C       -1.45408220       2.48860536       0.00000000
C       -3.55049054      -1.24501789       0.00000000
C        2.85391769       2.46302965       0.00000000
C       -3.55049054       1.24501789       0.00000000
C        0.67030469       3.72673621       0.00000000
C       -2.87641445       2.44666983       0.00000000
C       -0.71216406       3.70832676       0.00000000
H        1.19631203      -4.68703488       0.00000000
H        3.39425456      -3.41543378       0.00000000
H       -1.26812827      -4.65147765       0.00000000
H        4.68676083      -1.35935973       0.00000000
H       -3.43477034      -3.38773242       0.00000000
H        4.68676083       1.35935973       0.00000000
H       -4.64416609      -1.22901349       0.00000000
H        3.39425456       3.41543378       0.00000000
H       -4.64416609       1.22901349       0.00000000
H        1.19631203       4.68703488       0.00000000
H       -3.43477034       3.38773242       0.00000000
H       -1.26812827       4.65147765       0.00000000
