56
Properties=species:S:1:pos:R:3 pbc="F F F"
N        0.00003906       0.00006765       0.43628276
C       -1.42381701      -2.46612340      -0.07238128
C       -2.11732222      -1.22444681      -0.08678597
C       -1.44412128      -0.00016474      -0.00375024
C        0.72191797      -1.25072808      -0.00375024
C       -0.00174093      -2.44587824      -0.08678597
C        0.71951691      -3.68362362      -0.19498212
C       -0.02585815      -4.90705855      -0.22325351
C       -1.39146759      -4.91000643      -0.17877257
C       -2.12604473      -3.68241750      -0.13232613
C       -3.55645651      -3.66004950      -0.17877257
C       -4.23670829      -2.47592309      -0.22325351
C       -3.54987009      -1.21869189      -0.19498212
C       -4.23188771      -0.00024430      -0.23132252
C       -3.54745198       1.21771145      -0.18697080
C       -2.11474386       1.22371276      -0.07618333
C       -1.42054468       2.46832997      -0.05106765
C        0.00288530       2.44772825      -0.06533260
C        0.72220331       1.25089283       0.00750048
C        2.11835220       1.22636287      -0.06533260
C        2.84790880       0.00393721      -0.05106765
C        2.11713827      -1.21956553      -0.07618333
C        2.82829504      -2.46332781      -0.18697080
C        2.11573229      -3.66504441      -0.23132252
C       -4.23472256       2.47177267      -0.21419000
C       -3.55558292       3.65830714      -0.16498755
C       -2.12586865       3.68625985      -0.11100434
C       -1.38951418       4.91220154      -0.15947791
C       -0.02333814       4.90851753      -0.20261693
C        0.72195639       3.68709560      -0.17044737
C        2.11937783       3.67087008      -0.21040361
C        2.83214026       2.46878037      -0.17044737
C        4.26256995       2.43404734      -0.20261693
C        4.94884841       1.25274619      -0.15947791
C        4.25532900       0.00207367      -0.11100434
C        4.94597838      -1.25007157      -0.16498755
C        4.25797920      -2.43149098      -0.21419000
H        0.52805305      -5.84458719      -0.27895927
H       -1.94216215      -5.85109839      -0.20023327
H       -4.09611877      -4.60751096      -0.20023327
H       -5.32558751      -2.46498624      -0.27895927
H       -5.32324276       0.00224472      -0.28891423
H        2.66356537      -4.60894110      -0.28891423
H       -5.32419632       2.46090316      -0.27773203
H       -4.09824398       4.60357591      -0.19453797
H       -1.93952443       5.85602777      -0.19167318
H        0.53036192       5.84604821      -0.26612247
H        2.66487000       4.61569024      -0.27322914
H        4.79764530       3.38233100      -0.26612247
H        6.04123103       1.24833646      -0.19167318
H        6.03593568      -1.24739544      -0.19453797
H        4.79330281      -3.38043769      -0.27773203
C       -0.00181974      -0.00315188       1.99986171
H        0.51925706       0.89937962       2.33974254
H        0.51911753      -0.89928047       2.33929800
H       -1.03835850      -0.00007127       2.33929800
