52
Properties=species:S:1:pos:R:3 C36NH15=T pbc="F F F"
N        0.00000000       0.00000000       0.00000000
C       -1.42255444      -2.46393657       0.00000000
C       -2.11911558      -1.22307562       0.00000000
C       -1.41006112       0.00012601       0.00000000
C        0.70513969      -1.22108575       0.00000000
C        0.00034323      -2.44674574       0.00000000
C        0.72399247      -3.68700537       0.00000000
C       -0.02246479      -4.90843558       0.00000000
C       -1.39105504      -4.90887218       0.00000000
C       -2.13005624      -3.68936563       0.00000000
C       -3.55568049      -3.65912509       0.00000000
C       -4.23959751      -2.47367287       0.00000000
C       -3.55503655      -1.21650681       0.00000000
C       -4.24261304       0.00013423       0.00000000
C       -3.55529848       1.21677154       0.00000000
C       -2.11936249       1.22343365       0.00000000
C       -1.42287212       2.46426937       0.00000000
C        0.00005726       2.44691431       0.00000000
C        0.70508851       1.22124912       0.00000000
C        2.11906132       1.22350674       0.00000000
C        2.84555594      -0.00010872       0.00000000
C        2.11920587      -1.22370493       0.00000000
C        2.83140430      -2.47059303       0.00000000
C        2.12142277      -3.67414356       0.00000000
C       -4.23889642       2.47397155       0.00000000
C       -3.55445803       3.65846858       0.00000000
C       -2.12954942       3.68923563       0.00000000
C       -1.39072211       4.90755787       0.00000000
C       -0.02263879       4.90682757       0.00000000
C        0.72360969       3.68648195       0.00000000
C        2.12032290       3.67250700       0.00000000
C        2.83078218       2.46990535       0.00000000
C        4.26075672       2.43380802       0.00000000
C        4.94543084       1.24937826       0.00000000
C        4.25974649       0.00037392       0.00000000
C        4.94555574      -1.24901666       0.00000000
C        4.26197042      -2.43400621       0.00000000
H        0.53332216      -5.84887484       0.00000000
H       -1.94340356      -5.85230336       0.00000000
H       -4.09654160      -4.60918853       0.00000000
H       -5.33193528      -2.46256688       0.00000000
H       -5.33527301      -0.00035726       0.00000000
H        2.66732711      -4.62066059       0.00000000
H       -5.33100931       2.46275685       0.00000000
H       -4.09417322       4.60831219       0.00000000
H       -1.94298836       5.84991544       0.00000000
H        0.53400532       5.84586337       0.00000000
H        2.66636198       4.61827442       0.00000000
H        4.79566353       3.38539386       0.00000000
H        6.03766956       1.24228044       0.00000000
H        6.03800204      -1.24150192       0.00000000
H        4.79831465      -3.38541106       0.00000000
