52
Properties=species:S:1:pos:R:3 C36H15S=T pbc="F F F"
S        0.00000000       0.00000000       0.00000000
C       -1.44398025      -2.50104716       0.00000000
C       -2.22882962      -1.27404265       0.00000000
C       -1.65405063       0.00023395       0.00000000
C        0.82722792      -1.43233289       0.00000000
C        0.01106151      -2.56724440       0.00000000
C        0.74660084      -3.79509308       0.00000000
C       -0.03440070      -4.99669995       0.00000000
C       -1.40588313      -4.95097872       0.00000000
C       -2.14797163      -3.72039601       0.00000000
C       -3.58473178      -3.69301986       0.00000000
C       -4.31006874      -2.52814186       0.00000000
C       -3.65994744      -1.25097125       0.00000000
C       -4.32388526       0.00041614       0.00000000
C       -3.66009065       1.25198997       0.00000000
C       -2.22889824       1.27465020       0.00000000
C       -1.44411583       2.50168903       0.00000000
C        0.01074451       2.56724348       0.00000000
C        0.82702461       1.43244865       0.00000000
C        2.21792582       1.29292676       0.00000000
C        2.88858417       0.00020352       0.00000000
C        2.21832857      -1.29295740       0.00000000
C        2.91430044      -2.54373650       0.00000000
C        2.16230302      -3.74438641       0.00000000
C       -4.30985681       2.52958829       0.00000000
C       -3.58477780       3.69440422       0.00000000
C       -2.14778701       3.72114717       0.00000000
C       -1.40572067       4.95235734       0.00000000
C       -0.03411050       4.99758718       0.00000000
C        0.74642757       3.79555602       0.00000000
C        2.16214143       3.74493881       0.00000000
C        2.91383415       2.54420325       0.00000000
C        4.34509271       2.46925303       0.00000000
C        4.99172760       1.25878886       0.00000000
C        4.29650148       0.00053547       0.00000000
C        4.99183681      -1.25730653       0.00000000
C        4.34561612      -2.46765134       0.00000000
H        0.48165493      -5.95825848       0.00000000
H       -1.96868111      -5.88740548       0.00000000
H       -4.11430215      -4.64863059       0.00000000
H       -5.40083067      -2.56200383       0.00000000
H       -5.41528361       0.00058789       0.00000000
H        2.70815093      -4.68947923       0.00000000
H       -5.40090531       2.56365613       0.00000000
H       -4.11351083       4.65089362       0.00000000
H       -1.96912253       5.88848936       0.00000000
H        0.48298640       5.95872996       0.00000000
H        2.70800593       4.69040387       0.00000000
H        4.91891832       3.39764347       0.00000000
H        6.08414264       1.23893455       0.00000000
H        6.08454744      -1.23695807       0.00000000
H        4.92064399      -3.39549314       0.00000000
