94
Properties=species:S:1:pos:R:3 C72NH21=T pbc="F F F"
N        0.00000000       0.00000000       0.00000000
C        2.11730580      -6.13513822       0.00000000
C       -0.02604355      -7.37327975       0.00000000
C        4.25822500      -4.90046546       0.00000000
C        6.40248895      -3.66192405       0.00000000
C        0.72450589      -6.15037937       0.00000000
C        2.84804231      -4.92914082       0.00000000
C       -1.39108735      -7.37318111       0.00000000
C        7.08563386      -2.47957769       0.00000000
C        4.96782471      -3.70162992       0.00000000
C        0.00188435      -4.90950610       0.00000000
C        2.12936594      -3.68577477       0.00000000
C       -2.13458793      -6.14934545       0.00000000
C        6.39784577      -1.22386796       0.00000000
C        4.25451575      -2.45569307       0.00000000
C        0.71356116      -3.67939500       0.00000000
C       -1.41437832      -4.91322712       0.00000000
C        2.83240527      -2.45720222       0.00000000
C        7.07344746       0.00242874       0.00000000
C        4.96680940      -1.23050612       0.00000000
C       -3.53416949      -6.12136113       0.00000000
C       -0.00344921      -2.44403287       0.00000000
C       -2.12703833      -3.68413846       0.00000000
C        2.11950516      -1.21867729       0.00000000
C        6.39686360       1.22789798       0.00000000
C        4.25862885       0.00127693       0.00000000
C       -4.25819541      -4.92328010       0.00000000
C       -1.41760547      -2.45536471       0.00000000
C        0.70258808      -1.21648453       0.00000000
C       -3.54779034      -3.68150112       0.00000000
C        4.96626026       1.23345887       0.00000000
C        7.08447754       2.48392801       0.00000000
C        2.83820311       0.00061075       0.00000000
C       -5.68981847      -4.89130754       0.00000000
C       -2.11486995      -1.22500354       0.00000000
C       -4.25269918      -2.45312115       0.00000000
C        4.25444216       2.45857180       0.00000000
C        6.40193463       3.66623218       0.00000000
C        2.12040284       1.22031817       0.00000000
C       -6.37242580      -3.70919425       0.00000000
C       -1.40480055       0.00021686       0.00000000
C       -3.54323012      -1.22173541       0.00000000
C        0.70279233       1.21727203       0.00000000
C        4.96758839       3.70511342       0.00000000
C        2.83320991       2.46005379       0.00000000
C       -5.68863772      -2.44774918       0.00000000
C       -2.11515807       1.22620667       0.00000000
C       -4.25665755       0.00119761       0.00000000
C       -0.00337489       2.44648181       0.00000000
C        4.25850139       4.90408733       0.00000000
C        2.13011537       3.68946806       0.00000000
C       -6.37183846      -1.23392850       0.00000000
C       -3.54420218       1.22433381       0.00000000
C       -1.41857263       2.45826137       0.00000000
C       -5.69278233       0.00190658       0.00000000
C        2.84858502       4.93389398       0.00000000
C        0.71386412       3.68365865       0.00000000
C       -4.25395046       2.45667219       0.00000000
C       -2.12820857       3.68871923       0.00000000
C       -6.37304008       1.23749829       0.00000000
C        2.11781351       6.14001405       0.00000000
C        0.00196456       4.91374089       0.00000000
C       -3.54905426       3.68613006       0.00000000
C       -5.68961790       2.45144744       0.00000000
C       -1.41492341       4.91763698       0.00000000
C        0.72492815       6.15461445       0.00000000
C       -4.25882363       4.92876299       0.00000000
C       -6.37256373       3.71375605       0.00000000
C       -2.13504096       6.15379537       0.00000000
C       -0.02591711       7.37735411       0.00000000
C       -5.69019420       4.89655008       0.00000000
C       -3.53462038       6.12699956       0.00000000
C       -1.39109401       7.37730153       0.00000000
H        2.66172273      -7.08092206       0.00000000
H        0.52794332      -8.31399715       0.00000000
H        4.80362306      -5.84576257       0.00000000
H        6.94027273      -4.61150731       0.00000000
H       -1.94481835      -8.31489272       0.00000000
H        8.17814590      -2.46980377       0.00000000
H        8.16641087       0.00130696       0.00000000
H       -4.08055488      -7.06772838       0.00000000
H        8.17644954       2.47347123       0.00000000
H       -6.22849915      -5.84170846       0.00000000
H        6.93829678       4.61670220       0.00000000
H       -7.46410440      -3.69978625       0.00000000
H        4.80492775       5.84912963       0.00000000
H       -7.46311975      -1.23534153       0.00000000
H       -7.46439042       1.23717831       0.00000000
H        2.66303097       7.08575431       0.00000000
H       -7.46381884       3.70469884       0.00000000
H        0.52903300       8.31709237       0.00000000
H       -6.22798576       5.84758022       0.00000000
H       -4.08207358       7.07297275       0.00000000
H       -1.94613585       8.31774863       0.00000000
