94
Properties=species:S:1:pos:R:3 C72H21S=T pbc="F F F"
S        0.00000000       0.00000000       0.00000000
C        4.29833666       4.94143308       0.00000000
C        6.45711528       3.68679003       0.00000000
C        2.13103275       6.19309027       0.00000000
C       -0.03503705       7.43541789       0.00000000
C        5.02154134       3.74379237       0.00000000
C        2.87815428       4.98446491       0.00000000
C        7.12422203       2.49416453       0.00000000
C       -1.40172815       7.41674434       0.00000000
C        0.73216406       6.22052034       0.00000000
C        4.31588402       2.49420984       0.00000000
C        2.16199990       3.74383247       0.00000000
C        6.43502884       1.23274289       0.00000000
C       -2.14962872       6.18948387       0.00000000
C        0.00264169       4.98492032       0.00000000
C        2.90258542       2.51807435       0.00000000
C        5.00734362       1.24598599       0.00000000
C        0.72995048       3.77285017       0.00000000
C       -3.55370558       6.15606309       0.00000000
C       -1.42411789       4.95972136       0.00000000
C        7.10808336      -0.00000000       0.00000000
C        2.21485652       1.27736378       0.00000000
C        4.29960698      -0.00000000       0.00000000
C       -0.00090156       2.55679482       0.00000000
C       -4.28521556       4.95684322       0.00000000
C       -2.14982078       3.72391460       0.00000000
C        6.43502884      -1.23274289       0.00000000
C        2.88260083      -0.00000000       0.00000000
C        0.81634786       1.41406971       0.00000000
C        5.00734362      -1.24598599       0.00000000
C       -3.58303733       3.71400893       0.00000000
C       -5.72199878       4.92331066       0.00000000
C       -1.44098920       2.49687158       0.00000000
C        7.12422203      -2.49416453       0.00000000
C        2.21485652      -1.27736378       0.00000000
C        4.31588402      -2.49420984       0.00000000
C       -4.31798426       2.49061396       0.00000000
C       -6.42156113       3.74873610       0.00000000
C       -2.21330727       1.27940199       0.00000000
C        6.45711528      -3.68679003       0.00000000
C        0.81634786      -1.41406971       0.00000000
C        2.90258542      -2.51807435       0.00000000
C       -1.63229680       0.00000000       0.00000000
C       -5.75296294       2.47719482       0.00000000
C       -3.63191463       1.25495319       0.00000000
C        5.02154134      -3.74379237       0.00000000
C       -0.00090156      -2.55679482       0.00000000
C        2.16199990      -3.74383247       0.00000000
C       -2.21330727      -1.27940199       0.00000000
C       -6.42856695       1.25146333       0.00000000
C       -4.32282430       0.00000000       0.00000000
C        4.29833666      -4.94143308       0.00000000
C        0.72995048      -3.77285017       0.00000000
C       -1.44098920      -2.49687158       0.00000000
C        2.87815428      -4.98446491       0.00000000
C       -5.75561281       0.00000000       0.00000000
C       -3.63191463      -1.25495319       0.00000000
C        0.00264169      -4.98492032       0.00000000
C       -2.14982078      -3.72391460       0.00000000
C        2.13103275      -6.19309027       0.00000000
C       -6.42856695      -1.25146333       0.00000000
C       -4.31798426      -2.49061396       0.00000000
C       -1.42411789      -4.95972136       0.00000000
C        0.73216406      -6.22052034       0.00000000
C       -3.58303733      -3.71400893       0.00000000
C       -5.75296294      -2.47719482       0.00000000
C       -2.14962872      -6.18948387       0.00000000
C       -0.03503705      -7.43541789       0.00000000
C       -4.28521556      -4.95684322       0.00000000
C       -6.42156113      -3.74873610       0.00000000
C       -1.40172815      -7.41674434       0.00000000
C       -3.55370558      -6.15606309       0.00000000
C       -5.72199878      -4.92331066       0.00000000
H        4.84512017       5.88720667       0.00000000
H        7.01311101       4.62642368       0.00000000
H        2.67592967       7.13984963       0.00000000
H        0.50059073       8.38671723       0.00000000
H        8.21602661       2.48431935       0.00000000
H       -1.95667103       8.35701541       0.00000000
H       -4.10017501       7.10282875       0.00000000
H        8.20124101      -0.00000000       0.00000000
H       -6.25923505       5.87385862       0.00000000
H        8.21602661      -2.48431935       0.00000000
H       -7.51303814       3.75996454       0.00000000
H        7.01311101      -4.62642368       0.00000000
H       -7.52099021       1.25202967       0.00000000
H        4.84512017      -5.88720667       0.00000000
H        2.67592967      -7.13984963       0.00000000
H       -7.52099021      -1.25202967       0.00000000
H        0.50059073      -8.38671723       0.00000000
H       -7.51303814      -3.75996454       0.00000000
H       -1.95667103      -8.35701541       0.00000000
H       -4.10017501      -7.10282875       0.00000000
H       -6.25923505      -5.87385862       0.00000000
