120
Properties=species:S:1:pos:R:3 pbc="F F F"
B        1.42717531       0.00000000       0.00000000
C       -4.98467300      -6.14915169       0.00000000
C       -2.83482734      -7.39322273       0.00000000
C       -7.13552839      -4.90638314       0.00000000
C       -0.68440988      -8.63853773       0.00000000
C       -3.56933512      -6.18275844       0.00000000
C       -5.69855304      -4.95079981       0.00000000
C       -1.43969912      -7.41370010       0.00000000
C        0.68163021      -8.63990836       0.00000000
C       -7.81558090      -3.72258456       0.00000000
C       -2.85216083      -4.93953291       0.00000000
C       -4.98844404      -3.70121106       0.00000000
C       -0.71201622      -6.17436359       0.00000000
C        1.43745926      -7.41652186       0.00000000
C       -7.13024155      -2.45772745       0.00000000
C       -3.56808971      -3.70813632       0.00000000
C       -1.42854061      -4.94328830       0.00000000
C       -5.69326337      -2.46841872       0.00000000
C        2.83326948      -7.39124971       0.00000000
C        0.70940964      -6.17881090       0.00000000
C       -7.80952431      -1.23970783       0.00000000
C       -2.85927483      -2.47303029       0.00000000
C       -0.71577616      -3.71066662       0.00000000
C       -4.98458679      -1.23323303       0.00000000
C        3.56981163      -6.18106900       0.00000000
C        1.42604274      -4.95179753       0.00000000
C       -7.12810896       0.00089790       0.00000000
C       -1.43956404      -2.47961051       0.00000000
C       -3.56046790      -1.23596846       0.00000000
C        0.70927359      -3.72178782       0.00000000
C        4.98581916      -6.15127865       0.00000000
C        2.85056251      -4.93952788       0.00000000
C       -7.80900794       1.24170426       0.00000000
C       -5.69435275       0.00068482       0.00000000
C       -0.72697086      -1.25531518       0.00000000
C       -2.84376501       0.00034598       0.00000000
C        1.41593221      -2.49176237       0.00000000
C        5.70079061      -4.95266969       0.00000000
C        3.56429247      -3.70100643       0.00000000
C       -7.12927588       2.45942611       0.00000000
C       -4.98414010       1.23442858       0.00000000
C       -1.42717531       0.00019163       0.00000000
C        0.68366983      -1.28658320       0.00000000
C       -3.56000370       1.23683361       0.00000000
C        4.99416474      -3.70186021       0.00000000
C        7.13987328      -4.91265600       0.00000000
C        2.85379803      -2.46983317       0.00000000
C       -7.81413608       3.72460109       0.00000000
C       -5.69234882       2.46980254       0.00000000
C       -0.72661478       1.25556134       0.00000000
C       -2.85832856       2.47371557       0.00000000
C        5.71627251      -2.47713634       0.00000000
C        7.83019659      -3.73418988       0.00000000
C        3.59049416      -1.23855288       0.00000000
C       -7.13383837       4.90801883       0.00000000
C       -4.98720420       3.70238292       0.00000000
C        0.68406560       1.28667198       0.00000000
C       -1.43874741       2.48003477       0.00000000
C        2.91241659      -0.00010919       0.00000000
C        7.15338735      -2.46541404       0.00000000
C        5.01395537      -1.24280690       0.00000000
C       -5.69679884       4.95222780       0.00000000
C       -3.56679074       3.70905972       0.00000000
C        1.41682250       2.49169887       0.00000000
C       -0.71451718       3.71101516       0.00000000
C        3.59091832       1.23801495       0.00000000
C        7.83198790      -1.24494977       0.00000000
C        5.71836900      -0.00050731       0.00000000
C       -4.98273072       6.15027358       0.00000000
C       -2.85051964       4.94022110       0.00000000
C        0.71044802       3.72182453       0.00000000
C        2.85458536       2.46958488       0.00000000
C       -1.42695471       4.94383989       0.00000000
C        7.15317677      -0.00064489       0.00000000
C        5.01444039       1.24201653       0.00000000
C       -3.56740757       6.18370026       0.00000000
C        1.42764748       4.95173176       0.00000000
C        3.56553406       3.70059637       0.00000000
C       -0.71010966       6.17463672       0.00000000
C        7.83241317       1.24328018       0.00000000
C        5.71710092       2.47618381       0.00000000
C       -2.83260927       7.39392589       0.00000000
C        2.85210619       4.93915968       0.00000000
C        0.71115711       6.17880944       0.00000000
C        4.99551821       3.70104019       0.00000000
C        7.15429648       2.46393635       0.00000000
C       -1.43758222       7.41421635       0.00000000
C        3.57178305       6.18063940       0.00000000
C        1.43978617       7.41649725       0.00000000
C        5.70233399       4.95182035       0.00000000
C        7.83141052       3.73280303       0.00000000
C       -0.68178965       8.63879333       0.00000000
C        2.83537688       7.39087387       0.00000000
C        4.98775985       6.15046095       0.00000000
C        0.68387315       8.63993009       0.00000000
C        7.14152196       4.91111170       0.00000000
H       -5.53246207      -7.09580331       0.00000000
H       -3.38247875      -8.34007374       0.00000000
H       -7.67750861      -5.85577547       0.00000000
H       -1.23741836      -9.58128293       0.00000000
H        3.38463703       8.33686879       0.00000000
H        5.53361663       7.09763241       0.00000000
H        1.23656671       9.58402451       0.00000000
H        7.67792831       5.86399325       0.00000000
H        8.92337200      -3.73417306       0.00000000
H        8.92625688      -1.24533585       0.00000000
H        8.92678736       1.24322310       0.00000000
H        8.92474656       3.73227346       0.00000000
H       -7.67572249       5.85752561       0.00000000
H       -5.53036304       7.09707898       0.00000000
H       -3.38013870       8.34090574       0.00000000
H       -1.23469382       9.58174690       0.00000000
H        7.67626418      -5.86532776       0.00000000
H        5.53159947      -7.09841205       0.00000000
H        3.38226412      -8.33724410       0.00000000
H        1.23376557      -9.58413818       0.00000000
H       -8.90730172       3.71534960       0.00000000
H       -8.90326921       1.24077609       0.00000000
H       -8.90376569      -1.23824408       0.00000000
H       -8.90873220      -3.71286935       0.00000000
