120
Properties=species:S:1:pos:R:3 pbc="F F F"
N        1.42123186       0.00000000       0.00000000
C       -4.96869187      -6.13008780       0.00000000
C       -2.82428914      -7.36761615       0.00000000
C       -7.11673156      -4.89605096       0.00000000
C       -0.68130655      -8.61194062       0.00000000
C       -3.55617624      -6.15906449       0.00000000
C       -5.68050177      -4.93355323       0.00000000
C       -1.43217656      -7.38760743       0.00000000
C        0.68116884      -8.61196211       0.00000000
C       -7.79797023      -3.71562103       0.00000000
C       -2.83899540      -4.91773397       0.00000000
C       -4.96726804      -3.68649377       0.00000000
C       -0.70823165      -6.14707609       0.00000000
C        1.43184130      -7.38626274       0.00000000
C       -7.11210145      -2.45349392       0.00000000
C       -3.54692476      -3.68863011       0.00000000
C       -1.42046492      -4.91929551       0.00000000
C       -5.67632433      -2.46041264       0.00000000
C        2.82428654      -7.36847999       0.00000000
C        0.70842813      -6.14443787       0.00000000
C       -7.79133620      -1.23825282       0.00000000
C       -2.83311259      -2.45482884       0.00000000
C       -0.70662790      -3.68495571       0.00000000
C       -4.96900936      -1.23028826       0.00000000
C        3.55384689      -6.15937476       0.00000000
C        1.41994015      -4.91402374       0.00000000
C       -7.10984327       0.00000000       0.00000000
C       -1.40953466      -2.45427338       0.00000000
C       -3.54543104      -1.23167645       0.00000000
C        0.70722949      -3.67803039       0.00000000
C        4.96727638      -6.12770161       0.00000000
C        2.83733418      -4.91779255       0.00000000
C       -7.79133620       1.23825282       0.00000000
C       -5.67673054       0.00000000       0.00000000
C       -0.70013432      -1.21967362       0.00000000
C       -2.83686662       0.00000000       0.00000000
C        1.42310064      -2.44546676       0.00000000
C        5.68180163      -4.93231304       0.00000000
C        3.54979083      -3.69013487       0.00000000
C       -7.11210145       2.45349392       0.00000000
C       -4.96900936       1.23028826       0.00000000
C       -1.42123185       0.00000000       0.00000000
C        0.71750462      -1.21703207       0.00000000
C       -3.54543104       1.23167645       0.00000000
C        4.96985770      -3.68495095       0.00000000
C        7.11743610      -4.89573736       0.00000000
C        2.84013898      -2.45876360       0.00000000
C       -7.79797023       3.71562103       0.00000000
C       -5.67632433       2.46041264       0.00000000
C       -0.70013432       1.21967362       0.00000000
C       -2.83311259       2.45482884       0.00000000
C        5.67271674      -2.45654461       0.00000000
C        7.79751191      -3.71468045       0.00000000
C        3.53475831      -1.22727400       0.00000000
C       -7.11673156       4.89605096       0.00000000
C       -4.96726804       3.68649377       0.00000000
C        0.71750462       1.21703207       0.00000000
C       -1.40953466       2.45427338       0.00000000
C        2.82375414       0.00000000       0.00000000
C        7.11061009      -2.45183998       0.00000000
C        4.96342324      -1.22340268       0.00000000
C       -5.68050177       4.93355323       0.00000000
C       -3.54692476       3.68863011       0.00000000
C        1.42310064       2.44546676       0.00000000
C       -0.70662790       3.68495571       0.00000000
C        3.53475831       1.22727400       0.00000000
C        7.79256783      -1.23796124       0.00000000
C        5.67616558       0.00000000       0.00000000
C       -4.96869187       6.13008780       0.00000000
C       -2.83899540       4.91773397       0.00000000
C        0.70722949       3.67803039       0.00000000
C        2.84013898       2.45876360       0.00000000
C       -1.42046492       4.91929551       0.00000000
C        7.11160689       0.00000000       0.00000000
C        4.96342324       1.22340268       0.00000000
C       -3.55617624       6.15906449       0.00000000
C        1.41994015       4.91402374       0.00000000
C        3.54979083       3.69013487       0.00000000
C       -0.70823165       6.14707609       0.00000000
C        7.79256783       1.23796124       0.00000000
C        5.67271674       2.45654461       0.00000000
C       -2.82428914       7.36761615       0.00000000
C        2.83733418       4.91779255       0.00000000
C        0.70842813       6.14443787       0.00000000
C        4.96985770       3.68495095       0.00000000
C        7.11061009       2.45183998       0.00000000
C       -1.43217656       7.38760743       0.00000000
C        3.55384689       6.15937476       0.00000000
C        1.43184130       7.38626274       0.00000000
C        5.68180163       4.93231304       0.00000000
C        7.79751191       3.71468045       0.00000000
C       -0.68130655       8.61194062       0.00000000
C        2.82428654       7.36847999       0.00000000
C        4.96727638       6.12770161       0.00000000
C        0.68116884       8.61196211       0.00000000
C        7.11743610       4.89573736       0.00000000
H       -5.51558124      -7.07592237       0.00000000
H       -3.37064049      -8.31411417       0.00000000
H       -7.65779869      -5.84381002       0.00000000
H       -1.23277247      -9.55420777       0.00000000
H        3.37141281       8.31426582       0.00000000
H        5.51513640       7.07385850       0.00000000
H        1.23324673       9.55364361       0.00000000
H        7.65941880       5.84311509       0.00000000
H        8.88926477      -3.70976452       0.00000000
H        8.88520015      -1.23888151       0.00000000
H        8.88520015       1.23888151       0.00000000
H        8.88926477       3.70976452       0.00000000
H       -7.65779869       5.84381002       0.00000000
H       -5.51558124       7.07592237       0.00000000
H       -3.37064049       8.31411417       0.00000000
H       -1.23277247       9.55420777       0.00000000
H        7.65941880      -5.84311509       0.00000000
H        5.51513640      -7.07385850       0.00000000
H        3.37141281      -8.31426582       0.00000000
H        1.23324673      -9.55364361       0.00000000
H       -8.88929185       3.70993039       0.00000000
H       -8.88400600       1.23867813       0.00000000
H       -8.88400600      -1.23867813       0.00000000
H       -8.88929185      -3.70993039       0.00000000
