148
Properties=species:S:1:pos:R:3 pbc="F F F"
S        0.00000000       0.00000000       0.00000000
C        2.14414653      -6.19826087       0.00000000
C       -0.00465816      -7.42658579       0.00000000
C        4.29172291      -4.96214570       0.00000000
C        6.43203910      -3.71876035       0.00000000
C        0.71854697      -6.20609868       0.00000000
C        2.86815974      -4.97343223       0.00000000
C       -1.42435828      -7.41325979       0.00000000
C        7.13168481      -2.48471639       0.00000000
C        5.01348191      -3.73283798       0.00000000
C       -0.00210298      -4.97978246       0.00000000
C        2.15728976      -3.74051401       0.00000000
C       -2.14303726      -6.18062512       0.00000000
C        6.42486326      -1.24681815       0.00000000
C        4.31229108      -2.49518575       0.00000000
C        0.72780598      -3.76659837       0.00000000
C       -1.42669681      -4.95436160       0.00000000
C        2.89587131      -2.51777319       0.00000000
C        7.13277316      -0.00887095       0.00000000
C        5.00469753      -1.25197785       0.00000000
C       -3.57027863      -6.17032285       0.00000000
C        0.00187369      -2.55387795       0.00000000
C       -2.14977372      -3.71331959       0.00000000
C        2.20995511      -1.28216277       0.00000000
C        6.42792332       1.23052853       0.00000000
C        4.29295826      -0.00573147       0.00000000
C       -4.29014539      -4.93756243       0.00000000
C       -1.44444002      -2.49488223       0.00000000
C        0.81961498      -1.42170199       0.00000000
C       -3.58589467      -3.70483086       0.00000000
C        5.00831494       1.23911845       0.00000000
C        7.13802649       2.46698823       0.00000000
C        2.88551610      -0.00363822       0.00000000
C       -5.71671753      -4.92865912       0.00000000
C       -2.21564147      -1.26955964       0.00000000
C       -4.31800329      -2.48146288       0.00000000
C        4.31865245       2.48396818       0.00000000
C        6.44140326       3.70247424       0.00000000
C        2.21298958       1.27701619       0.00000000
C       -6.43687851      -3.70381924       0.00000000
C       -1.64157156       0.00329018       0.00000000
C       -3.62949729      -1.24312639       0.00000000
C        0.82346215       1.41933378       0.00000000
C        5.02321563       3.71944515       0.00000000
C        2.90232352       2.51033388       0.00000000
C       -5.74047890      -2.46630405       0.00000000
C       -2.21229829       1.27903602       0.00000000
C       -4.31926254       0.01004467       0.00000000
C        0.00853750       2.55412645       0.00000000
C        4.30531645       4.94993887       0.00000000
C        2.16732102       3.73484428       0.00000000
C       -6.44491438      -1.22462510       0.00000000
C       -3.62564264       1.25969500       0.00000000
C       -1.43714537       2.50113607       0.00000000
C       -5.74328872       0.01423939       0.00000000
C        2.88269850       4.96495600       0.00000000
C        0.73881383       3.76420975       0.00000000
C       -4.30900893       2.50190933       0.00000000
C       -2.13699601       3.72272250       0.00000000
C       -6.44084339       1.25607993       0.00000000
C        2.16392740       6.19224392       0.00000000
C        0.01373575       4.98041690       0.00000000
C       -3.57254728       3.72162987       0.00000000
C       -5.73137035       2.49456162       0.00000000
C       -1.40968186       4.96107391       0.00000000
C        0.73918872       6.20495611       0.00000000
C       -4.27074258       4.95801576       0.00000000
C       -6.42193083       3.73461892       0.00000000
C       -2.12030062       6.19040820       0.00000000
C        0.02161729       7.42813961       0.00000000
C       -5.69730076       4.95578354       0.00000000
C       -3.54664193       6.18734209       0.00000000
C       -1.39699593       7.42010897       0.00000000
C        2.86534013      -7.44112187       0.00000000
C        0.72391074      -8.66767308       0.00000000
C        5.00799134      -6.20745846       0.00000000
C        7.14420223      -4.96939898       0.00000000
C       -2.15574326      -8.65167426       0.00000000
C        8.56896278      -2.47079581       0.00000000
C        8.56175750      -0.00888392       0.00000000
C       -4.28423783      -7.40869685       0.00000000
C        8.57484213       2.45169854       0.00000000
C       -6.42241852      -6.18110438       0.00000000
C        7.15472126       4.95200759       0.00000000
C       -7.87668389      -3.69155592       0.00000000
C        5.02431622       6.19347385       0.00000000
C       -7.88261817      -1.21890851       0.00000000
C       -7.87848548       1.25724776       0.00000000
C        2.88864436       7.43318620       0.00000000
C       -7.86234087       3.72956187       0.00000000
C        0.75400019       8.66768903       0.00000000
C       -6.39804090       6.21092799       0.00000000
C       -4.25604328       7.42810057       0.00000000
C       -2.12254403       8.66132520       0.00000000
C       -1.40274246      -9.87942260       0.00000000
C       -3.54846224      -8.62244551       0.00000000
C       -5.70291870      -7.37598019       0.00000000
C       -0.03902914      -9.88778452       0.00000000
C        2.11597667      -8.65026512       0.00000000
C        4.27522737      -7.41129341       0.00000000
C        6.43111655      -6.16466868       0.00000000
C        8.58300212      -4.91894435       0.00000000
C        9.25781475      -3.73426988       0.00000000
C        9.24263459      -1.25228320       0.00000000
C        9.24697615       1.23269718       0.00000000
C        9.26433271       3.71531393       0.00000000
C        8.59266638       4.90190434       0.00000000
C        6.44605995       6.14918696       0.00000000
C        4.29679362       7.39933807       0.00000000
C        2.14492125       8.64532373       0.00000000
C       -0.00227373       9.89066876       0.00000000
C       -1.36587919       9.88656034       0.00000000
C       -3.51523203       8.63849307       0.00000000
C       -5.67437696       7.40175542       0.00000000
C       -7.83713793       6.17822420       0.00000000
C       -8.53226371       5.00506664       0.00000000
C       -8.54722071       2.51638526       0.00000000
C       -8.55842933       0.02037780       0.00000000
C       -8.55580530      -2.47463231       0.00000000
C       -8.55139699      -4.96435984       0.00000000
C       -7.86153584      -6.14144745       0.00000000
H       -1.95127438     -10.82363920       0.00000000
H       -4.09764574      -9.56801013       0.00000000
H       -6.24869279      -8.32332387       0.00000000
H        0.50446200     -10.83511121       0.00000000
H        2.65737450      -9.59974244       0.00000000
H        4.82218732      -8.35668150       0.00000000
H        6.98344005      -7.10724596       0.00000000
H        9.13318520      -5.86168913       0.00000000
H       10.35010486      -3.72310163       0.00000000
H       10.33524832      -1.24992293       0.00000000
H       10.34000574       1.22992096       0.00000000
H       10.35603603       3.70305958       0.00000000
H        9.14145247       5.84632160       0.00000000
H        6.99774489       7.09284797       0.00000000
H        4.84566310       8.34360354       0.00000000
H        2.69154016       9.59198770       0.00000000
H        0.54430006      10.83571091       0.00000000
H       -1.91194287      10.83241475       0.00000000
H       -4.05943086       9.58634499       0.00000000
H       -6.21440647       8.35183144       0.00000000
H       -8.37292897       7.13014387       0.00000000
H       -9.62410229       5.01829932       0.00000000
H       -9.64073600       2.52912256       0.00000000
H       -9.65133544       0.02397044       0.00000000
H       -9.64888126      -2.48076003       0.00000000
H       -9.64328958      -4.97421592       0.00000000
H       -8.40341644      -7.09028485       0.00000000
