22
Properties=species:S:1:pos:R:3 pbc="F F F"
S        0.00000000       0.00000000       0.00000000
C        0.84751576      -1.46853661       0.00000000
C       -0.02696950      -2.57963556       0.00000000
C        2.24644924      -1.26710980       0.00000000
C       -1.42652420      -2.47081240       0.00000000
C       -1.69554789      -0.00029813       0.00000000
C        0.84708044       1.46718636       0.00000000
C        2.85223579      -0.00085645       0.00000000
C       -2.22054518      -1.31317405       0.00000000
C        2.24659754       1.26509875       0.00000000
C       -2.22057390       1.31192721       0.00000000
C       -0.02769111       2.57815992       0.00000000
C       -1.42685960       2.46968043       0.00000000
H        0.43404668      -3.56752962       0.00000000
H        2.87069262      -2.15977591       0.00000000
H       -1.97258994      -3.41662600       0.00000000
H        3.94287796      -0.00055675       0.00000000
H       -3.30659462      -1.40786936       0.00000000
H        2.87075769       2.15938249       0.00000000
H       -3.30576712       1.40620478       0.00000000
H        0.43470125       3.56584033       0.00000000
H       -1.97192114       3.41435410       0.00000000
