36
Properties=species:S:1:pos:R:3 C23NH12=T pbc="F F F"
N        1.41237415       0.00000000       0.00000000
C        0.71305507      -1.21703608       0.00000000
C       -0.70460700      -1.22045745       0.00000000
C        1.42601294      -2.44569362       0.00000000
C       -1.42611013      -0.00000000       0.00000000
C        0.71305507       1.21703608       0.00000000
C       -1.40834749      -2.45972673       0.00000000
C        2.80725908       0.00000000       0.00000000
C        0.69619531      -3.66482756       0.00000000
C        2.84137659      -2.42471510       0.00000000
C       -0.67569629      -3.67394132       0.00000000
C       -0.70460700       1.22045745       0.00000000
C        3.50392535      -1.22878941       0.00000000
C       -2.84501844      -0.00000000       0.00000000
C        1.42601294       2.44569362       0.00000000
C       -2.83005185      -2.43460430       0.00000000
C        3.50392535       1.22878941       0.00000000
C       -1.40834749       2.45972673       0.00000000
C       -3.52420243      -1.24908020       0.00000000
C        2.84137659       2.42471510       0.00000000
C       -3.52420243       1.24908020       0.00000000
C        0.69619531       3.66482756       0.00000000
C       -2.83005185       2.43460430       0.00000000
C       -0.67569629       3.67394132       0.00000000
H        1.25774523      -4.60010037       0.00000000
H        3.38917683      -3.36811825       0.00000000
H       -1.22218710      -4.61856915       0.00000000
H        4.59250456      -1.18072096       0.00000000
H       -3.36623650      -3.38513614       0.00000000
H        4.59250456       1.18072096       0.00000000
H       -4.61557720      -1.25188490       0.00000000
H        3.38917683       3.36811825       0.00000000
H       -4.61557720       1.25188490       0.00000000
H        1.25774523       4.60010037       0.00000000
H       -3.36623650       3.38513614       0.00000000
H       -1.22218710       4.61856915       0.00000000
